<routes xmlns:xsi="http://www.w3.org/2001/XMLSchema-instance" xsi:noNamespaceSchemaLocation="http://sumo.dlr.de/xsd/routes_file.xsd">

   <vType id="SUMO_DEFAULT_TYPE" accel="2.6" decel="4.5" sigma="1" length="4" minGap="2" maxSpeed="50"/>
   <vType id="emergency" guiShape="emergency" accel="2.9" decel="4.9" sigma="1" length="5" minGap="2" maxSpeed="60"/>
<!-- 1si to 2o -->
 <route id="1si_to_2o" edges="1fi 1si 2o "/>
 <flow id="1si_to_2o" type="SUMO_DEFAULT_TYPE" route="1si_to_2o" begin="0" end="10000000000" probability="0.04"/>

<!-- 1si to 3o -->
 <route id="1si_to_3o" edges="1fi 1si 3o "/>
 <flow id="1si_to_3o" type="SUMO_DEFAULT_TYPE" route="1si_to_3o" begin="0" end="10000000000" probability="0.04"/>

<!-- 1si to 4o -->
 <route id="1si_to_4o" edges="1fi 1si 4o "/>
 <flow id="1si_to_4o" type="SUMO_DEFAULT_TYPE" route="1si_to_4o" begin="0" end="10000000000" probability="0.04"/>

<!-- 2si to 1o -->
 <route id="2si_to_1o" edges="2fi 2si 1o "/>
 <flow id="2si_to_1o" type="SUMO_DEFAULT_TYPE" route="2si_to_1o" begin="0" end="10000000000" probability="0.04"/>

<!-- 2si to 3o -->
 <route id="2si_to_3o" edges="2fi 2si 3o "/>
 <flow id="2si_to_3o" type="SUMO_DEFAULT_TYPE" route="2si_to_3o" begin="0" end="10000000000" probability="0.04"/>
 
<!-- 2si to 4o -->
 <route id="2si_to_4o" edges="2fi 2si 4o "/>
 <flow id="2si_to_4o" type="SUMO_DEFAULT_TYPE" route="2si_to_4o" begin="0" end="10000000000" probability="0.04"/>

<!-- 3si to 1o -->
 <route id="3si_to_1o" edges="3fi 3si 1o"/>
 <flow id="3si_to_1o" type="SUMO_DEFAULT_TYPE" route="3si_to_1o" begin="0" end="10000000000" probability="0.04"/>

<!-- 3si to 2o -->
 <route id="3si_to_2o" edges="3fi 3si 2o"/>
 <flow id="3si_to_2o" type="SUMO_DEFAULT_TYPE" route="3si_to_2o" begin="0" end="10000000000" probability="0.04"/>

<!-- 3si to 4o -->
 <route id="3si_to_4o" edges="3fi 3si 4o"/>
 <flow id="3si_to_4o" type="SUMO_DEFAULT_TYPE" route="3si_to_4o" begin="0" end="10000000000" probability="0.04"/>
 
<!-- 4si to 1o -->
 <route id="4si_to_1o" edges="4fi 4si 1o"/>
 <flow id="4si_to_1o" type="SUMO_DEFAULT_TYPE" route="4si_to_1o" begin="0" end="10000000000" probability="0.04"/>
  
<!-- 4si to 2o -->
 <route id="4si_to_2o" edges="4fi 4si 2o"/>
 <flow id="4si_to_2o" type="SUMO_DEFAULT_TYPE" route="4si_to_2o" begin="0" end="10000000000" probability="0.04"/>
 
<!-- 4si to 3o -->
 <route id="4si_to_3o" edges="4fi 4si 3o"/>
 <flow id="4si_to_3o" type="SUMO_DEFAULT_TYPE" route="4si_to_3o" begin="0" end="10000000000" probability="0.04"/>


<!-- emergency vehicles -->

<!-- 1si to 2o -->

 <flow id="emg_1si_to_2o" type="emergency" route="1si_to_2o" begin="0" end="1000" probability="0.01"/>
<!-- 1si to 3o -->

 <flow id="emg_1si_to_3o" type="emergency" route="1si_to_3o" begin="1000" end="10000" probability="0.01"/>
<!-- 1si to 4o -->

 <flow id="emg_1si_to_4o" type="emergency" route="1si_to_4o" begin="4000" end="20000" probability="0.007"/>
  

 <flow id="3si_to_2o_rush" type="SUMO_DEFAULT_TYPE" route="3si_to_2o" begin="4000" end="9000" probability="0.03"/>
 <flow id="4si_to_2o_rush" type="SUMO_DEFAULT_TYPE" route="4si_to_2o" begin="4000" end="9000" probability="0.03"/>
 <flow id="1si_to_2o_rush" type="SUMO_DEFAULT_TYPE" route="1si_to_2o" begin="4000" end="10000" probability="0.04"/>

<!-- 2si to 1o -->
  <flow id="emg_2si_to_1o" type="emergency" route="2si_to_1o" begin="8000" end="15000" probability="0.006"/>
<!-- 2si to 3o -->

 <flow id="emg_2si_to_3o" type="emergency" route="2si_to_3o" begin="8000" end="10000" probability="0.006"/>
<!-- 2si to 4o -->

 <flow id="emg_2si_to_4o" type="emergency" route="2si_to_4o" begin="13500" end="20000" probability="0.007"/>

 <flow id="1si_to_3o_rush" type="SUMO_DEFAULT_TYPE" route="1si_to_3o" begin="16000" end="20000" probability="0.01"/>
 <flow id="2si_to_3o_rush" type="SUMO_DEFAULT_TYPE" route="2si_to_3o" begin="16000" end="20000" probability="0.01"/>
 <flow id="4si_to_3o_rush" type="SUMO_DEFAULT_TYPE" route="4si_to_3o" begin="16000" end="21000" probability="0.03"/>

 <!-- 3si to 1o -->

 <flow id="emg_3si_to_1o" type="emergency" route="3si_to_1o" begin="18000" end="20000" probability="0.01"/>
<!-- 3si to 2o -->

 <flow id="emg_3si_to_2o" type="emergency" route="3si_to_2o" begin="23000" end="25000" probability="0.007"/>
<!-- 3si to 4o -->

 <flow id="emg_3si_to_4o" type="emergency" route="3si_to_4o" begin="23000" end="25000" probability="0.005"/>

 <flow id="2si_to_4o_rush" type="SUMO_DEFAULT_TYPE" route="2si_to_4o" begin="25000" end="30000" probability="0.01"/>
 <flow id="1si_to_4o_rush" type="SUMO_DEFAULT_TYPE" route="1si_to_4o" begin="25000" end="30000" probability="0.01"/>
 <flow id="3si_to_4o_rush" type="SUMO_DEFAULT_TYPE" route="3si_to_4o" begin="25000" end="35000" probability="0.03"/>

 <!-- 4si to 1o -->

 <flow id="emg_4si_to_1o" type="emergency" route="4si_to_1o" begin="30500" end="35000" probability="0.08"/>
<!-- 4si to 2o -->

 <flow id="emg_4si_to_2o" type="emergency" route="4si_to_2o" begin="35000" end="36000" probability="0.07"/>
<!-- 4si to 3o -->

 <flow id="emg_4si_to_3o" type="emergency" route="4si_to_3o" begin="40000" end="100000" probability="0.005"/>

 <flow id="4si_to_1o_rush" type="SUMO_DEFAULT_TYPE" route="4si_to_1o" begin="40000" end="45000" probability="0.02"/>
 <flow id="3si_to_1o_rush" type="SUMO_DEFAULT_TYPE" route="3si_to_1o" begin="42000" end="45000" probability="0.02"/>
 <flow id="2si_to_1o_rush" type="SUMO_DEFAULT_TYPE" route="2si_to_1o" begin="42000" end="46000" probability="0.04"/>


</routes>
