<routes xmlns:xsi="http://www.w3.org/2001/XMLSchema-instance" xsi:noNamespaceSchemaLocation="http://sumo.dlr.de/xsd/routes_file.xsd">

   <vType id="SUMO_DEFAULT_TYPE" accel="2.6" decel="4.5" sigma="1" length="4" minGap="2" maxSpeed="50"/>
   <vType id="emergency" guiShape="emergency" accel="2.9" decel="4.9" sigma="1" length="5" minGap="2" maxSpeed="60"/>

<!-- 1si to 2o -->
 <route id="1si_to_2o" edges="1fi 1si 2o "/>
<!-- 1si to 3o -->
 <route id="1si_to_3o" edges="1fi 1si 3o "/>
<!-- 1si to 4o -->
 <route id="1si_to_4o" edges="1fi 1si 4o "/>
<!-- 2si to 1o -->
 <route id="2si_to_1o" edges="2fi 2si 1o "/>
<!-- 2si to 3o -->
 <route id="2si_to_3o" edges="2fi 2si 3o "/>
<!-- 2si to 4o -->
 <route id="2si_to_4o" edges="2fi 2si 4o "/>
<!-- 3si to 1o -->
 <route id="3si_to_1o" edges="3fi 3si 1o"/>
<!-- 3si to 2o -->
 <route id="3si_to_2o" edges="3fi 3si 2o"/>
<!-- 3si to 4o -->
 <route id="3si_to_4o" edges="3fi 3si 4o"/>
<!-- 4si to 1o -->
 <route id="4si_to_1o" edges="4fi 4si 1o"/> 
<!-- 4si to 2o -->
 <route id="4si_to_2o" edges="4fi 4si 2o"/>
<!-- 4si to 3o -->
 <route id="4si_to_3o" edges="4fi 4si 3o"/>

<flow begin="0" end="900" id="18" probability="0.013333333333333334" route="2si_to_3o" type="SUMO_DEFAULT_TYPE"/><flow begin="0" end="900" id="19" probability="0.03333333333333333" route="2si_to_1o" type="SUMO_DEFAULT_TYPE"/><flow begin="0" end="900" id="20" probability="0.11666666666666667" route="4si_to_1o" type="SUMO_DEFAULT_TYPE"/><flow begin="0" end="900" id="21" probability="0.1" route="4si_to_3o" type="SUMO_DEFAULT_TYPE"/><flow begin="0" end="900" id="22" probability="0.12" route="3si_to_4o" type="SUMO_DEFAULT_TYPE"/><flow begin="0" end="900" id="23" probability="0.10666666666666667" route="3si_to_2o" type="SUMO_DEFAULT_TYPE"/><flow begin="0" end="900" id="24" probability="0.021111111111111112" route="1si_to_2o" type="SUMO_DEFAULT_TYPE"/><flow begin="0" end="900" id="25" probability="0.03777777777777778" route="1si_to_3o" type="SUMO_DEFAULT_TYPE"/><flow begin="900" end="1800" id="57" probability="0.028888888888888888" route="2si_to_3o" type="SUMO_DEFAULT_TYPE"/><flow begin="900" end="1800" id="58" probability="0.042222222222222223" route="2si_to_1o" type="SUMO_DEFAULT_TYPE"/><flow begin="900" end="1800" id="59" probability="0.09222222222222222" route="4si_to_1o" type="SUMO_DEFAULT_TYPE"/><flow begin="900" end="1800" id="60" probability="0.11555555555555555" route="4si_to_3o" type="SUMO_DEFAULT_TYPE"/><flow begin="900" end="1800" id="61" probability="0.10444444444444445" route="3si_to_4o" type="SUMO_DEFAULT_TYPE"/><flow begin="900" end="1800" id="62" probability="0.11333333333333333" route="3si_to_2o" type="SUMO_DEFAULT_TYPE"/><flow begin="900" end="1800" id="63" probability="0.024444444444444446" route="1si_to_2o" type="SUMO_DEFAULT_TYPE"/><flow begin="900" end="1800" id="64" probability="0.052222222222222225" route="1si_to_3o" type="SUMO_DEFAULT_TYPE"/><flow begin="1800" end="2700" id="98" probability="0.03111111111111111" route="2si_to_3o" type="SUMO_DEFAULT_TYPE"/><flow begin="1800" end="2700" id="99" probability="0.03777777777777778" route="2si_to_1o" type="SUMO_DEFAULT_TYPE"/><flow begin="1800" end="2700" id="100" probability="0.13555555555555557" route="4si_to_1o" type="SUMO_DEFAULT_TYPE"/><flow begin="1800" end="2700" id="101" probability="0.1288888888888889" route="4si_to_3o" type="SUMO_DEFAULT_TYPE"/><flow begin="1800" end="2700" id="102" probability="0.1388888888888889" route="3si_to_4o" type="SUMO_DEFAULT_TYPE"/><flow begin="1800" end="2700" id="103" probability="0.12666666666666668" route="3si_to_2o" type="SUMO_DEFAULT_TYPE"/><flow begin="1800" end="2700" id="104" probability="0.03666666666666667" route="1si_to_2o" type="SUMO_DEFAULT_TYPE"/><flow begin="1800" end="2700" id="105" probability="0.04888888888888889" route="1si_to_3o" type="SUMO_DEFAULT_TYPE"/><flow begin="2700" end="3600" id="137" probability="0.03222222222222222" route="2si_to_3o" type="SUMO_DEFAULT_TYPE"/><flow begin="2700" end="3600" id="138" probability="0.06111111111111111" route="2si_to_1o" type="SUMO_DEFAULT_TYPE"/><flow begin="2700" end="3600" id="139" probability="0.12555555555555556" route="4si_to_1o" type="SUMO_DEFAULT_TYPE"/><flow begin="2700" end="3600" id="140" probability="0.18444444444444444" route="4si_to_3o" type="SUMO_DEFAULT_TYPE"/><flow begin="2700" end="3600" id="141" probability="0.13666666666666666" route="3si_to_4o" type="SUMO_DEFAULT_TYPE"/><flow begin="2700" end="3600" id="142" probability="0.1811111111111111" route="3si_to_2o" type="SUMO_DEFAULT_TYPE"/><flow begin="2700" end="3600" id="143" probability="0.03777777777777778" route="1si_to_2o" type="SUMO_DEFAULT_TYPE"/><flow begin="2700" end="3600" id="144" probability="0.0811111111111111" route="1si_to_3o" type="SUMO_DEFAULT_TYPE"/><flow begin="3600" end="4500" id="180" probability="0.03666666666666667" route="2si_to_3o" type="SUMO_DEFAULT_TYPE"/><flow begin="3600" end="4500" id="181" probability="0.06444444444444444" route="2si_to_1o" type="SUMO_DEFAULT_TYPE"/><flow begin="3600" end="4500" id="182" probability="0.12666666666666668" route="4si_to_1o" type="SUMO_DEFAULT_TYPE"/><flow begin="3600" end="4500" id="183" probability="0.22666666666666666" route="4si_to_3o" type="SUMO_DEFAULT_TYPE"/><flow begin="3600" end="4500" id="184" probability="0.13555555555555557" route="3si_to_4o" type="SUMO_DEFAULT_TYPE"/><flow begin="3600" end="4500" id="185" probability="0.23222222222222222" route="3si_to_2o" type="SUMO_DEFAULT_TYPE"/><flow begin="3600" end="4500" id="186" probability="0.04111111111111111" route="1si_to_2o" type="SUMO_DEFAULT_TYPE"/><flow begin="3600" end="4500" id="187" probability="0.07222222222222222" route="1si_to_3o" type="SUMO_DEFAULT_TYPE"/><flow begin="4500" end="5400" id="220" probability="0.051111111111111114" route="2si_to_3o" type="SUMO_DEFAULT_TYPE"/><flow begin="4500" end="5400" id="221" probability="0.08555555555555555" route="2si_to_1o" type="SUMO_DEFAULT_TYPE"/><flow begin="4500" end="5400" id="222" probability="0.13444444444444445" route="4si_to_1o" type="SUMO_DEFAULT_TYPE"/><flow begin="4500" end="5400" id="223" probability="0.22111111111111112" route="4si_to_3o" type="SUMO_DEFAULT_TYPE"/><flow begin="4500" end="5400" id="224" probability="0.13111111111111112" route="3si_to_4o" type="SUMO_DEFAULT_TYPE"/><flow begin="4500" end="5400" id="225" probability="0.21333333333333335" route="3si_to_2o" type="SUMO_DEFAULT_TYPE"/><flow begin="4500" end="5400" id="226" probability="0.05444444444444444" route="1si_to_2o" type="SUMO_DEFAULT_TYPE"/><flow begin="4500" end="5400" id="227" probability="0.09333333333333334" route="1si_to_3o" type="SUMO_DEFAULT_TYPE"/><flow begin="5400" end="6300" id="258" probability="0.058888888888888886" route="2si_to_3o" type="SUMO_DEFAULT_TYPE"/><flow begin="5400" end="6300" id="259" probability="0.09777777777777778" route="2si_to_1o" type="SUMO_DEFAULT_TYPE"/><flow begin="5400" end="6300" id="260" probability="0.13555555555555557" route="4si_to_1o" type="SUMO_DEFAULT_TYPE"/><flow begin="5400" end="6300" id="261" probability="0.22777777777777777" route="4si_to_3o" type="SUMO_DEFAULT_TYPE"/><flow begin="5400" end="6300" id="262" probability="0.13777777777777778" route="3si_to_4o" type="SUMO_DEFAULT_TYPE"/><flow begin="5400" end="6300" id="263" probability="0.22" route="3si_to_2o" type="SUMO_DEFAULT_TYPE"/><flow begin="5400" end="6300" id="264" probability="0.06333333333333334" route="1si_to_2o" type="SUMO_DEFAULT_TYPE"/><flow begin="5400" end="6300" id="265" probability="0.11222222222222222" route="1si_to_3o" type="SUMO_DEFAULT_TYPE"/><flow begin="6300" end="7200" id="299" probability="0.057777777777777775" route="2si_to_3o" type="SUMO_DEFAULT_TYPE"/><flow begin="6300" end="7200" id="300" probability="0.10555555555555556" route="2si_to_1o" type="SUMO_DEFAULT_TYPE"/><flow begin="6300" end="7200" id="301" probability="0.11777777777777777" route="4si_to_1o" type="SUMO_DEFAULT_TYPE"/><flow begin="6300" end="7200" id="302" probability="0.24" route="4si_to_3o" type="SUMO_DEFAULT_TYPE"/><flow begin="6300" end="7200" id="303" probability="0.10666666666666667" route="3si_to_4o" type="SUMO_DEFAULT_TYPE"/><flow begin="6300" end="7200" id="304" probability="0.2222222222222222" route="3si_to_2o" type="SUMO_DEFAULT_TYPE"/><flow begin="6300" end="7200" id="305" probability="0.06777777777777778" route="1si_to_2o" type="SUMO_DEFAULT_TYPE"/><flow begin="6300" end="7200" id="306" probability="0.12222222222222222" route="1si_to_3o" type="SUMO_DEFAULT_TYPE"/><flow begin="7200" end="8100" id="340" probability="0.08666666666666667" route="2si_to_3o" type="SUMO_DEFAULT_TYPE"/><flow begin="7200" end="8100" id="341" probability="0.14" route="2si_to_1o" type="SUMO_DEFAULT_TYPE"/><flow begin="7200" end="8100" id="342" probability="0.11888888888888889" route="4si_to_1o" type="SUMO_DEFAULT_TYPE"/><flow begin="7200" end="8100" id="343" probability="0.2588888888888889" route="4si_to_3o" type="SUMO_DEFAULT_TYPE"/><flow begin="7200" end="8100" id="344" probability="0.11888888888888889" route="3si_to_4o" type="SUMO_DEFAULT_TYPE"/><flow begin="7200" end="8100" id="345" probability="0.2477777777777778" route="3si_to_2o" type="SUMO_DEFAULT_TYPE"/><flow begin="7200" end="8100" id="346" probability="0.08666666666666667" route="1si_to_2o" type="SUMO_DEFAULT_TYPE"/><flow begin="7200" end="8100" id="347" probability="0.1511111111111111" route="1si_to_3o" type="SUMO_DEFAULT_TYPE"/><flow begin="8100" end="9000" id="379" probability="0.07111111111111111" route="2si_to_3o" type="SUMO_DEFAULT_TYPE"/><flow begin="8100" end="9000" id="380" probability="0.18333333333333332" route="2si_to_1o" type="SUMO_DEFAULT_TYPE"/><flow begin="8100" end="9000" id="381" probability="0.13777777777777778" route="4si_to_1o" type="SUMO_DEFAULT_TYPE"/><flow begin="8100" end="9000" id="382" probability="0.2644444444444444" route="4si_to_3o" type="SUMO_DEFAULT_TYPE"/><flow begin="8100" end="9000" id="383" probability="0.13555555555555557" route="3si_to_4o" type="SUMO_DEFAULT_TYPE"/><flow begin="8100" end="9000" id="384" probability="0.24555555555555555" route="3si_to_2o" type="SUMO_DEFAULT_TYPE"/><flow begin="8100" end="9000" id="385" probability="0.06777777777777778" route="1si_to_2o" type="SUMO_DEFAULT_TYPE"/><flow begin="8100" end="9000" id="386" probability="0.19666666666666666" route="1si_to_3o" type="SUMO_DEFAULT_TYPE"/><flow begin="9000" end="9900" id="421" probability="0.06" route="2si_to_3o" type="SUMO_DEFAULT_TYPE"/><flow begin="9000" end="9900" id="422" probability="0.19666666666666666" route="2si_to_1o" type="SUMO_DEFAULT_TYPE"/><flow begin="9000" end="9900" id="423" probability="0.15" route="4si_to_1o" type="SUMO_DEFAULT_TYPE"/><flow begin="9000" end="9900" id="424" probability="0.2677777777777778" route="4si_to_3o" type="SUMO_DEFAULT_TYPE"/><flow begin="9000" end="9900" id="425" probability="0.14222222222222222" route="3si_to_4o" type="SUMO_DEFAULT_TYPE"/><flow begin="9000" end="9900" id="426" probability="0.24222222222222223" route="3si_to_2o" type="SUMO_DEFAULT_TYPE"/><flow begin="9000" end="9900" id="427" probability="0.05444444444444444" route="1si_to_2o" type="SUMO_DEFAULT_TYPE"/><flow begin="9000" end="9900" id="428" probability="0.2088888888888889" route="1si_to_3o" type="SUMO_DEFAULT_TYPE"/><flow begin="9900" end="10800" id="465" probability="0.07333333333333333" route="2si_to_3o" type="SUMO_DEFAULT_TYPE"/><flow begin="9900" end="10800" id="466" probability="0.16666666666666666" route="2si_to_1o" type="SUMO_DEFAULT_TYPE"/><flow begin="9900" end="10800" id="467" probability="0.13777777777777778" route="4si_to_1o" type="SUMO_DEFAULT_TYPE"/><flow begin="9900" end="10800" id="468" probability="0.2911111111111111" route="4si_to_3o" type="SUMO_DEFAULT_TYPE"/><flow begin="9900" end="10800" id="469" probability="0.13111111111111112" route="3si_to_4o" type="SUMO_DEFAULT_TYPE"/><flow begin="9900" end="10800" id="470" probability="0.27444444444444444" route="3si_to_2o" type="SUMO_DEFAULT_TYPE"/><flow begin="9900" end="10800" id="471" probability="0.07777777777777778" route="1si_to_2o" type="SUMO_DEFAULT_TYPE"/><flow begin="9900" end="10800" id="472" probability="0.1811111111111111" route="1si_to_3o" type="SUMO_DEFAULT_TYPE"/><flow begin="10800" end="11700" id="505" probability="0.07888888888888888" route="2si_to_3o" type="SUMO_DEFAULT_TYPE"/><flow begin="10800" end="11700" id="506" probability="0.2111111111111111" route="2si_to_1o" type="SUMO_DEFAULT_TYPE"/><flow begin="10800" end="11700" id="507" probability="0.1288888888888889" route="4si_to_1o" type="SUMO_DEFAULT_TYPE"/><flow begin="10800" end="11700" id="508" probability="0.26555555555555554" route="4si_to_3o" type="SUMO_DEFAULT_TYPE"/><flow begin="10800" end="11700" id="509" probability="0.12444444444444444" route="3si_to_4o" type="SUMO_DEFAULT_TYPE"/><flow begin="10800" end="11700" id="510" probability="0.2477777777777778" route="3si_to_2o" type="SUMO_DEFAULT_TYPE"/><flow begin="10800" end="11700" id="511" probability="0.09222222222222222" route="1si_to_2o" type="SUMO_DEFAULT_TYPE"/><flow begin="10800" end="11700" id="512" probability="0.23777777777777778" route="1si_to_3o" type="SUMO_DEFAULT_TYPE"/><flow begin="11700" end="12600" id="548" probability="0.07" route="2si_to_3o" type="SUMO_DEFAULT_TYPE"/><flow begin="11700" end="12600" id="549" probability="0.13" route="2si_to_1o" type="SUMO_DEFAULT_TYPE"/><flow begin="11700" end="12600" id="550" probability="0.16111111111111112" route="4si_to_1o" type="SUMO_DEFAULT_TYPE"/><flow begin="11700" end="12600" id="551" probability="0.25222222222222224" route="4si_to_3o" type="SUMO_DEFAULT_TYPE"/><flow begin="11700" end="12600" id="552" probability="0.15888888888888889" route="3si_to_4o" type="SUMO_DEFAULT_TYPE"/><flow begin="11700" end="12600" id="553" probability="0.23444444444444446" route="3si_to_2o" type="SUMO_DEFAULT_TYPE"/><flow begin="11700" end="12600" id="554" probability="0.06888888888888889" route="1si_to_2o" type="SUMO_DEFAULT_TYPE"/><flow begin="11700" end="12600" id="555" probability="0.14444444444444443" route="1si_to_3o" type="SUMO_DEFAULT_TYPE"/><flow begin="12600" end="13500" id="588" probability="0.05333333333333334" route="2si_to_3o" type="SUMO_DEFAULT_TYPE"/><flow begin="12600" end="13500" id="589" probability="0.09666666666666666" route="2si_to_1o" type="SUMO_DEFAULT_TYPE"/><flow begin="12600" end="13500" id="590" probability="0.13666666666666666" route="4si_to_1o" type="SUMO_DEFAULT_TYPE"/><flow begin="12600" end="13500" id="591" probability="0.21444444444444444" route="4si_to_3o" type="SUMO_DEFAULT_TYPE"/><flow begin="12600" end="13500" id="592" probability="0.13333333333333333" route="3si_to_4o" type="SUMO_DEFAULT_TYPE"/><flow begin="12600" end="13500" id="593" probability="0.2" route="3si_to_2o" type="SUMO_DEFAULT_TYPE"/><flow begin="12600" end="13500" id="594" probability="0.056666666666666664" route="1si_to_2o" type="SUMO_DEFAULT_TYPE"/><flow begin="12600" end="13500" id="595" probability="0.1111111111111111" route="1si_to_3o" type="SUMO_DEFAULT_TYPE"/><flow begin="13500" end="14400" id="630" probability="0.07444444444444444" route="2si_to_3o" type="SUMO_DEFAULT_TYPE"/><flow begin="13500" end="14400" id="631" probability="0.1111111111111111" route="2si_to_1o" type="SUMO_DEFAULT_TYPE"/><flow begin="13500" end="14400" id="632" probability="0.10888888888888888" route="4si_to_1o" type="SUMO_DEFAULT_TYPE"/><flow begin="13500" end="14400" id="633" probability="0.19777777777777777" route="4si_to_3o" type="SUMO_DEFAULT_TYPE"/><flow begin="13500" end="14400" id="634" probability="0.10555555555555556" route="3si_to_4o" type="SUMO_DEFAULT_TYPE"/><flow begin="13500" end="14400" id="635" probability="0.19555555555555557" route="3si_to_2o" type="SUMO_DEFAULT_TYPE"/><flow begin="13500" end="14400" id="636" probability="0.08222222222222222" route="1si_to_2o" type="SUMO_DEFAULT_TYPE"/><flow begin="13500" end="14400" id="637" probability="0.11777777777777777" route="1si_to_3o" type="SUMO_DEFAULT_TYPE"/><flow begin="14400" end="15300" id="674" probability="0.06222222222222222" route="2si_to_3o" type="SUMO_DEFAULT_TYPE"/><flow begin="14400" end="15300" id="675" probability="0.07222222222222222" route="2si_to_1o" type="SUMO_DEFAULT_TYPE"/><flow begin="14400" end="15300" id="676" probability="0.12222222222222222" route="4si_to_1o" type="SUMO_DEFAULT_TYPE"/><flow begin="14400" end="15300" id="677" probability="0.19" route="4si_to_3o" type="SUMO_DEFAULT_TYPE"/><flow begin="14400" end="15300" id="678" probability="0.11333333333333333" route="3si_to_4o" type="SUMO_DEFAULT_TYPE"/><flow begin="14400" end="15300" id="679" probability="0.19" route="3si_to_2o" type="SUMO_DEFAULT_TYPE"/><flow begin="14400" end="15300" id="680" probability="0.07333333333333333" route="1si_to_2o" type="SUMO_DEFAULT_TYPE"/><flow begin="14400" end="15300" id="681" probability="0.07444444444444444" route="1si_to_3o" type="SUMO_DEFAULT_TYPE"/><flow begin="15300" end="16200" id="714" probability="0.06222222222222222" route="2si_to_3o" type="SUMO_DEFAULT_TYPE"/><flow begin="15300" end="16200" id="715" probability="0.08" route="2si_to_1o" type="SUMO_DEFAULT_TYPE"/><flow begin="15300" end="16200" id="716" probability="0.11888888888888889" route="4si_to_1o" type="SUMO_DEFAULT_TYPE"/><flow begin="15300" end="16200" id="717" probability="0.15444444444444444" route="4si_to_3o" type="SUMO_DEFAULT_TYPE"/><flow begin="15300" end="16200" id="718" probability="0.11333333333333333" route="3si_to_4o" type="SUMO_DEFAULT_TYPE"/><flow begin="15300" end="16200" id="719" probability="0.15444444444444444" route="3si_to_2o" type="SUMO_DEFAULT_TYPE"/><flow begin="15300" end="16200" id="720" probability="0.07333333333333333" route="1si_to_2o" type="SUMO_DEFAULT_TYPE"/><flow begin="15300" end="16200" id="721" probability="0.08555555555555555" route="1si_to_3o" type="SUMO_DEFAULT_TYPE"/><flow begin="16200" end="17100" id="758" probability="0.06444444444444444" route="2si_to_3o" type="SUMO_DEFAULT_TYPE"/><flow begin="16200" end="17100" id="759" probability="0.08444444444444445" route="2si_to_1o" type="SUMO_DEFAULT_TYPE"/><flow begin="16200" end="17100" id="760" probability="0.13111111111111112" route="4si_to_1o" type="SUMO_DEFAULT_TYPE"/><flow begin="16200" end="17100" id="761" probability="0.18222222222222223" route="4si_to_3o" type="SUMO_DEFAULT_TYPE"/><flow begin="16200" end="17100" id="762" probability="0.12666666666666668" route="3si_to_4o" type="SUMO_DEFAULT_TYPE"/><flow begin="16200" end="17100" id="763" probability="0.18444444444444444" route="3si_to_2o" type="SUMO_DEFAULT_TYPE"/><flow begin="16200" end="17100" id="764" probability="0.07222222222222222" route="1si_to_2o" type="SUMO_DEFAULT_TYPE"/><flow begin="16200" end="17100" id="765" probability="0.08555555555555555" route="1si_to_3o" type="SUMO_DEFAULT_TYPE"/><flow begin="17100" end="18000" id="795" probability="0.07555555555555556" route="2si_to_3o" type="SUMO_DEFAULT_TYPE"/><flow begin="17100" end="18000" id="796" probability="0.07111111111111111" route="2si_to_1o" type="SUMO_DEFAULT_TYPE"/><flow begin="17100" end="18000" id="797" probability="0.12444444444444444" route="4si_to_1o" type="SUMO_DEFAULT_TYPE"/><flow begin="17100" end="18000" id="798" probability="0.14666666666666667" route="4si_to_3o" type="SUMO_DEFAULT_TYPE"/><flow begin="17100" end="18000" id="799" probability="0.11888888888888889" route="3si_to_4o" type="SUMO_DEFAULT_TYPE"/><flow begin="17100" end="18000" id="800" probability="0.14888888888888888" route="3si_to_2o" type="SUMO_DEFAULT_TYPE"/><flow begin="17100" end="18000" id="801" probability="0.08666666666666667" route="1si_to_2o" type="SUMO_DEFAULT_TYPE"/><flow begin="17100" end="18000" id="802" probability="0.07444444444444444" route="1si_to_3o" type="SUMO_DEFAULT_TYPE"/><flow begin="18000" end="18900" id="837" probability="0.06" route="2si_to_3o" type="SUMO_DEFAULT_TYPE"/><flow begin="18000" end="18900" id="838" probability="0.07222222222222222" route="2si_to_1o" type="SUMO_DEFAULT_TYPE"/><flow begin="18000" end="18900" id="839" probability="0.1322222222222222" route="4si_to_1o" type="SUMO_DEFAULT_TYPE"/><flow begin="18000" end="18900" id="840" probability="0.17" route="4si_to_3o" type="SUMO_DEFAULT_TYPE"/><flow begin="18000" end="18900" id="841" probability="0.11666666666666667" route="3si_to_4o" type="SUMO_DEFAULT_TYPE"/><flow begin="18000" end="18900" id="842" probability="0.1711111111111111" route="3si_to_2o" type="SUMO_DEFAULT_TYPE"/><flow begin="18000" end="18900" id="843" probability="0.07222222222222222" route="1si_to_2o" type="SUMO_DEFAULT_TYPE"/><flow begin="18000" end="18900" id="844" probability="0.06777777777777778" route="1si_to_3o" type="SUMO_DEFAULT_TYPE"/><flow begin="18900" end="19800" id="877" probability="0.056666666666666664" route="2si_to_3o" type="SUMO_DEFAULT_TYPE"/><flow begin="18900" end="19800" id="878" probability="0.06888888888888889" route="2si_to_1o" type="SUMO_DEFAULT_TYPE"/><flow begin="18900" end="19800" id="879" probability="0.12555555555555556" route="4si_to_1o" type="SUMO_DEFAULT_TYPE"/><flow begin="18900" end="19800" id="880" probability="0.17888888888888888" route="4si_to_3o" type="SUMO_DEFAULT_TYPE"/><flow begin="18900" end="19800" id="881" probability="0.11777777777777777" route="3si_to_4o" type="SUMO_DEFAULT_TYPE"/><flow begin="18900" end="19800" id="882" probability="0.17222222222222222" route="3si_to_2o" type="SUMO_DEFAULT_TYPE"/><flow begin="18900" end="19800" id="883" probability="0.06888888888888889" route="1si_to_2o" type="SUMO_DEFAULT_TYPE"/><flow begin="18900" end="19800" id="884" probability="0.08" route="1si_to_3o" type="SUMO_DEFAULT_TYPE"/><flow begin="19800" end="20700" id="918" probability="0.08666666666666667" route="2si_to_3o" type="SUMO_DEFAULT_TYPE"/><flow begin="19800" end="20700" id="919" probability="0.08333333333333333" route="2si_to_1o" type="SUMO_DEFAULT_TYPE"/><flow begin="19800" end="20700" id="920" probability="0.11444444444444445" route="4si_to_1o" type="SUMO_DEFAULT_TYPE"/><flow begin="19800" end="20700" id="921" probability="0.1688888888888889" route="4si_to_3o" type="SUMO_DEFAULT_TYPE"/><flow begin="19800" end="20700" id="922" probability="0.11666666666666667" route="3si_to_4o" type="SUMO_DEFAULT_TYPE"/><flow begin="19800" end="20700" id="923" probability="0.1711111111111111" route="3si_to_2o" type="SUMO_DEFAULT_TYPE"/><flow begin="19800" end="20700" id="924" probability="0.09" route="1si_to_2o" type="SUMO_DEFAULT_TYPE"/><flow begin="19800" end="20700" id="925" probability="0.08666666666666667" route="1si_to_3o" type="SUMO_DEFAULT_TYPE"/><flow begin="20700" end="21600" id="958" probability="0.08777777777777777" route="2si_to_3o" type="SUMO_DEFAULT_TYPE"/><flow begin="20700" end="21600" id="959" probability="0.07222222222222222" route="2si_to_1o" type="SUMO_DEFAULT_TYPE"/><flow begin="20700" end="21600" id="960" probability="0.1388888888888889" route="4si_to_1o" type="SUMO_DEFAULT_TYPE"/><flow begin="20700" end="21600" id="961" probability="0.18777777777777777" route="4si_to_3o" type="SUMO_DEFAULT_TYPE"/><flow begin="20700" end="21600" id="962" probability="0.1388888888888889" route="3si_to_4o" type="SUMO_DEFAULT_TYPE"/><flow begin="20700" end="21600" id="963" probability="0.18666666666666668" route="3si_to_2o" type="SUMO_DEFAULT_TYPE"/><flow begin="20700" end="21600" id="964" probability="0.08777777777777777" route="1si_to_2o" type="SUMO_DEFAULT_TYPE"/><flow begin="20700" end="21600" id="965" probability="0.07333333333333333" route="1si_to_3o" type="SUMO_DEFAULT_TYPE"/><flow begin="21600" end="22500" id="998" probability="0.06111111111111111" route="2si_to_3o" type="SUMO_DEFAULT_TYPE"/><flow begin="21600" end="22500" id="999" probability="0.07555555555555556" route="2si_to_1o" type="SUMO_DEFAULT_TYPE"/><flow begin="21600" end="22500" id="1000" probability="0.11222222222222222" route="4si_to_1o" type="SUMO_DEFAULT_TYPE"/><flow begin="21600" end="22500" id="1001" probability="0.15444444444444444" route="4si_to_3o" type="SUMO_DEFAULT_TYPE"/><flow begin="21600" end="22500" id="1002" probability="0.10222222222222223" route="3si_to_4o" type="SUMO_DEFAULT_TYPE"/><flow begin="21600" end="22500" id="1003" probability="0.17222222222222222" route="3si_to_2o" type="SUMO_DEFAULT_TYPE"/><flow begin="21600" end="22500" id="1004" probability="0.08777777777777777" route="1si_to_2o" type="SUMO_DEFAULT_TYPE"/><flow begin="21600" end="22500" id="1005" probability="0.07444444444444444" route="1si_to_3o" type="SUMO_DEFAULT_TYPE"/><flow begin="22500" end="23400" id="1042" probability="0.07333333333333333" route="2si_to_3o" type="SUMO_DEFAULT_TYPE"/><flow begin="22500" end="23400" id="1043" probability="0.07444444444444444" route="2si_to_1o" type="SUMO_DEFAULT_TYPE"/><flow begin="22500" end="23400" id="1044" probability="0.13666666666666666" route="4si_to_1o" type="SUMO_DEFAULT_TYPE"/><flow begin="22500" end="23400" id="1045" probability="0.19555555555555557" route="4si_to_3o" type="SUMO_DEFAULT_TYPE"/><flow begin="22500" end="23400" id="1046" probability="0.12555555555555556" route="3si_to_4o" type="SUMO_DEFAULT_TYPE"/><flow begin="22500" end="23400" id="1047" probability="0.21" route="3si_to_2o" type="SUMO_DEFAULT_TYPE"/><flow begin="22500" end="23400" id="1048" probability="0.09444444444444444" route="1si_to_2o" type="SUMO_DEFAULT_TYPE"/><flow begin="22500" end="23400" id="1049" probability="0.07" route="1si_to_3o" type="SUMO_DEFAULT_TYPE"/><flow begin="23400" end="24300" id="1084" probability="0.06666666666666667" route="2si_to_3o" type="SUMO_DEFAULT_TYPE"/><flow begin="23400" end="24300" id="1085" probability="0.06" route="2si_to_1o" type="SUMO_DEFAULT_TYPE"/><flow begin="23400" end="24300" id="1086" probability="0.12444444444444444" route="4si_to_1o" type="SUMO_DEFAULT_TYPE"/><flow begin="23400" end="24300" id="1087" probability="0.16555555555555557" route="4si_to_3o" type="SUMO_DEFAULT_TYPE"/><flow begin="23400" end="24300" id="1088" probability="0.12444444444444444" route="3si_to_4o" type="SUMO_DEFAULT_TYPE"/><flow begin="23400" end="24300" id="1089" probability="0.1688888888888889" route="3si_to_2o" type="SUMO_DEFAULT_TYPE"/><flow begin="23400" end="24300" id="1090" probability="0.07333333333333333" route="1si_to_2o" type="SUMO_DEFAULT_TYPE"/><flow begin="23400" end="24300" id="1091" probability="0.06333333333333334" route="1si_to_3o" type="SUMO_DEFAULT_TYPE"/><flow begin="24300" end="25200" id="1124" probability="0.10111111111111111" route="2si_to_3o" type="SUMO_DEFAULT_TYPE"/><flow begin="24300" end="25200" id="1125" probability="0.06555555555555556" route="2si_to_1o" type="SUMO_DEFAULT_TYPE"/><flow begin="24300" end="25200" id="1126" probability="0.13555555555555557" route="4si_to_1o" type="SUMO_DEFAULT_TYPE"/><flow begin="24300" end="25200" id="1127" probability="0.15666666666666668" route="4si_to_3o" type="SUMO_DEFAULT_TYPE"/><flow begin="24300" end="25200" id="1128" probability="0.1322222222222222" route="3si_to_4o" type="SUMO_DEFAULT_TYPE"/><flow begin="24300" end="25200" id="1129" probability="0.1622222222222222" route="3si_to_2o" type="SUMO_DEFAULT_TYPE"/><flow begin="24300" end="25200" id="1130" probability="0.1111111111111111" route="1si_to_2o" type="SUMO_DEFAULT_TYPE"/><flow begin="24300" end="25200" id="1131" probability="0.06666666666666667" route="1si_to_3o" type="SUMO_DEFAULT_TYPE"/><flow begin="25200" end="26100" id="1164" probability="0.07777777777777778" route="2si_to_3o" type="SUMO_DEFAULT_TYPE"/><flow begin="25200" end="26100" id="1165" probability="0.06666666666666667" route="2si_to_1o" type="SUMO_DEFAULT_TYPE"/><flow begin="25200" end="26100" id="1166" probability="0.11888888888888889" route="4si_to_1o" type="SUMO_DEFAULT_TYPE"/><flow begin="25200" end="26100" id="1167" probability="0.19777777777777777" route="4si_to_3o" type="SUMO_DEFAULT_TYPE"/><flow begin="25200" end="26100" id="1168" probability="0.11888888888888889" route="3si_to_4o" type="SUMO_DEFAULT_TYPE"/><flow begin="25200" end="26100" id="1169" probability="0.2011111111111111" route="3si_to_2o" type="SUMO_DEFAULT_TYPE"/><flow begin="25200" end="26100" id="1170" probability="0.08555555555555555" route="1si_to_2o" type="SUMO_DEFAULT_TYPE"/><flow begin="25200" end="26100" id="1171" probability="0.07111111111111111" route="1si_to_3o" type="SUMO_DEFAULT_TYPE"/><flow begin="26100" end="27000" id="1204" probability="0.06888888888888889" route="2si_to_3o" type="SUMO_DEFAULT_TYPE"/><flow begin="26100" end="27000" id="1205" probability="0.06555555555555556" route="2si_to_1o" type="SUMO_DEFAULT_TYPE"/><flow begin="26100" end="27000" id="1206" probability="0.1288888888888889" route="4si_to_1o" type="SUMO_DEFAULT_TYPE"/><flow begin="26100" end="27000" id="1207" probability="0.16111111111111112" route="4si_to_3o" type="SUMO_DEFAULT_TYPE"/><flow begin="26100" end="27000" id="1208" probability="0.12222222222222222" route="3si_to_4o" type="SUMO_DEFAULT_TYPE"/><flow begin="26100" end="27000" id="1209" probability="0.16555555555555557" route="3si_to_2o" type="SUMO_DEFAULT_TYPE"/><flow begin="26100" end="27000" id="1210" probability="0.08222222222222222" route="1si_to_2o" type="SUMO_DEFAULT_TYPE"/><flow begin="26100" end="27000" id="1211" probability="0.06777777777777778" route="1si_to_3o" type="SUMO_DEFAULT_TYPE"/><flow begin="27000" end="27900" id="1242" probability="0.07888888888888888" route="2si_to_3o" type="SUMO_DEFAULT_TYPE"/><flow begin="27000" end="27900" id="1243" probability="0.07222222222222222" route="2si_to_1o" type="SUMO_DEFAULT_TYPE"/><flow begin="27000" end="27900" id="1244" probability="0.14888888888888888" route="4si_to_1o" type="SUMO_DEFAULT_TYPE"/><flow begin="27000" end="27900" id="1245" probability="0.15444444444444444" route="4si_to_3o" type="SUMO_DEFAULT_TYPE"/><flow begin="27000" end="27900" id="1246" probability="0.1388888888888889" route="3si_to_4o" type="SUMO_DEFAULT_TYPE"/><flow begin="27000" end="27900" id="1247" probability="0.16" route="3si_to_2o" type="SUMO_DEFAULT_TYPE"/><flow begin="27000" end="27900" id="1248" probability="0.09" route="1si_to_2o" type="SUMO_DEFAULT_TYPE"/><flow begin="27000" end="